Version 4.1
SHEET 1 2524 1592
WIRE 96 -80 -688 -80
WIRE 272 -80 96 -80
WIRE 272 -64 272 -80
WIRE 96 -16 96 -80
WIRE 128 -16 96 -16
WIRE -688 16 -688 -80
WIRE 96 80 96 -16
WIRE 128 80 96 80
WIRE 432 80 416 80
WIRE 640 80 512 80
WIRE -32 176 -112 176
WIRE 128 176 48 176
WIRE 448 176 416 176
WIRE 496 176 496 160
WIRE 496 176 448 176
WIRE 576 176 576 160
WIRE 640 176 640 80
WIRE 640 176 576 176
WIRE 832 176 640 176
WIRE 1024 176 832 176
WIRE 1264 176 1024 176
WIRE 1472 176 1264 176
WIRE 1504 176 1472 176
WIRE 640 192 640 176
WIRE -688 208 -688 96
WIRE -112 224 -112 176
WIRE 128 272 -96 272
WIRE 640 272 640 256
WIRE 640 272 416 272
WIRE 1024 288 1024 176
WIRE 1264 288 1264 176
WIRE 832 320 832 176
WIRE 1168 352 1168 336
WIRE 96 368 32 368
WIRE 128 368 96 368
WIRE 480 368 416 368
WIRE 560 368 480 368
WIRE 32 384 32 368
WIRE 560 416 560 368
WIRE 832 416 832 400
WIRE 832 416 560 416
WIRE -96 432 -96 272
WIRE -96 432 -192 432
WIRE 832 432 832 416
WIRE 32 464 32 448
WIRE 96 464 96 368
WIRE 128 464 96 464
WIRE 448 464 416 464
WIRE 512 464 448 464
WIRE 640 464 560 464
WIRE 1024 464 1024 352
WIRE 1168 464 1168 416
WIRE 1264 464 1264 368
WIRE 1504 464 1504 352
WIRE -96 480 -96 432
WIRE 640 480 640 464
WIRE -192 496 -192 432
WIRE 560 496 560 464
WIRE 832 528 832 512
WIRE -880 560 -880 528
WIRE -96 560 -96 544
WIRE 448 560 416 560
WIRE 560 576 560 560
WIRE 640 576 640 560
WIRE -880 592 -880 560
WIRE 272 640 272 624
WIRE 512 672 512 464
WIRE -192 688 -192 560
WIRE -96 688 -96 640
WIRE -96 688 -192 688
WIRE -96 704 -96 688
FLAG 272 640 0
FLAG 640 576 0
FLAG 560 576 0
FLAG 448 176 SW
FLAG 480 368 PGFB
FLAG 448 464 SET
FLAG -688 208 0
FLAG -96 704 0
FLAG -112 224 0
FLAG 1504 464 0
FLAG 1024 464 0
FLAG 1472 176 VOUT1
FLAG 32 464 0
FLAG 832 528 0
FLAG 1264 464 0
FLAG -880 672 0
FLAG -880 560 clk
FLAG 128 560 clk
FLAG 512 752 0
FLAG 1168 464 0
SYMBOL cap 576 496 M0
WINDOW 0 34 12 Left 2
WINDOW 3 34 52 Left 2
SYMATTR InstName C1
SYMATTR Value 1µF
SYMBOL voltage -688 0 M0
WINDOW 0 45 50 Left 2
WINDOW 3 42 88 Left 2
SYMATTR InstName Vin2
SYMATTR Value 12V
SYMBOL res -80 544 M0
WINDOW 3 -19 77 Right 2
WINDOW 0 -21 50 Right 2
SYMATTR Value 1k
SYMATTR InstName Rth1
SYMBOL cap -176 496 M0
WINDOW 3 41 44 Left 2
WINDOW 0 41 14 Left 2
SYMATTR Value 27p
SYMATTR InstName Cthp1
SYMBOL cap -112 544 M180
WINDOW 0 54 45 Left 2
WINDOW 3 51 18 Left 2
SYMATTR InstName Cth1
SYMATTR Value 100n
SYMBOL res -48 192 R270
WINDOW 0 32 56 VTop 2
WINDOW 3 0 56 VBottom 2
SYMATTR InstName Rfreq1
SYMATTR Value 47.5k
SYMBOL cap 1008 288 R0
WINDOW 3 56 46 Left 2
WINDOW 123 56 72 Left 2
WINDOW 0 57 22 Left 2
SYMATTR Value 47µF
SYMATTR Value2 x4
SYMATTR InstName Coc1
SYMATTR SpiceLine Rser=2.17m Lser=0.2n
SYMBOL res 624 464 R0
WINDOW 0 58 48 Left 2
WINDOW 3 48 89 Left 2
SYMATTR InstName Riset1
SYMATTR Value 33.2k
SYMBOL PowerProducts\\LT8627SP 272 240 R0
SYMATTR InstName U1
SYMBOL cap 48 384 M0
WINDOW 0 51 19 Left 2
WINDOW 3 48 55 Left 2
SYMATTR InstName C2
SYMATTR Value 1µF
SYMBOL res 528 64 R90
WINDOW 0 -45 60 VBottom 2
WINDOW 3 -36 56 VTop 2
SYMATTR InstName R3
SYMATTR Value 100k
SYMBOL res 816 528 M180
WINDOW 0 36 76 Left 2
WINDOW 3 36 40 Left 2
SYMATTR InstName R2
SYMATTR Value 1.78k
SYMBOL res 816 416 M180
WINDOW 0 36 76 Left 2
WINDOW 3 36 40 Left 2
SYMATTR InstName R1
SYMATTR Value 10k
SYMBOL current 1504 272 R0
WINDOW 123 0 0 Left 0
WINDOW 39 0 0 Left 0
SYMATTR InstName I1
SYMATTR Value PWL(0 0 2m 0 2.00001m 1)
SYMBOL res 1248 272 R0
SYMATTR InstName R4
SYMATTR Value '3.3/0.01'
SYMBOL voltage -880 576 R0
WINDOW 123 0 0 Left 0
WINDOW 39 0 0 Left 0
SYMATTR InstName V1
SYMATTR Value PULSE(0 3.3 0 1e-9 1e-9 0.25e-6 0.5e-6)
SYMBOL voltage 512 656 R0
WINDOW 123 0 0 Left 0
WINDOW 39 0 0 Left 0
SYMATTR InstName V2
SYMATTR Value 3.3
SYMBOL fra 640 256 R0
SYMATTR InstName @1
SYMATTR SpiceLine delay=1m fstart=5.53125K fend=1Meg oct=2 fcoarse=44.25K pp0=105.6m pp1=6.6m f0=5.53125K f1=88.5K tavgmin=50µ tsettle=11.2994µ
SYMBOL cap 1152 352 R0
SYMATTR InstName C3
SYMATTR Value 22µ
SYMATTR SpiceLine Rser=40m Lser=1.7n
SYMBOL res 1152 240 R0
SYMATTR InstName R5
SYMATTR Value 0.5
SYMBOL Coilcraft\\Power_Inductors\\XGL5030 496 160 R0
SYMATTR SpiceModel XGL5030-102_sat
SYMATTR InstName U2
TEXT -432 -456 Left 4 ;LT8627SP - 18V, 16A Synchronous Step-Down Silent Switcher 3 with Ultra Low Noise
TEXT -248 848 Left 2 ;.tran 5m startup
TEXT 8 880 Left 2 ;* Adjust R1,R2,C1 as desired for start-up timing
TEXT 1544 -352 Left 2 ;Designer:
TEXT 1544 -400 Left 2 ;Date:
TEXT 1544 -448 Left 2 ;ProjectName:
TEXT -248 880 Left 2 !.fra startup
